<?xml version="1.0" encoding="UTF-8"?>

<!-- generated on 2025-04-20 18:44:06.690861 by osmWebWizard.py v1_22_0+0002-63e50f52594
<configuration>
    <net-file value="C:\Users\elnaz\2025-04-20-18-40-09\osm.net.xml.gz"/>
    <output-trip-file value="C:\Users\elnaz\2025-04-20-18-40-09\osm.passenger.trips.xml"/>
    <route-file value="C:\Users\elnaz\2025-04-20-18-40-09\osm.passenger.rou.xml"/>
    <prefix value="veh"/>
    <trip-attributes value="departLane=&quot;best&quot;"/>
    <fringe-start-attributes value="departSpeed=&quot;max&quot;"/>
    <vehicle-class value="passenger"/>
    <lanes value="True"/>
    <fringe-factor value="5"/>
    <allow-fringe.min-length value="1000.0"/>
    <via-edge-types value="highway.motorway,highway.motorway_link,highway.trunk_link,highway.primary_link,highway.secondary_link,highway.tertiary_link"/>
    <min-distance value="300.0"/>
    <min-distance.fringe value="10.0"/>
    <remove-loops value="True"/>
    <validate value="True"/>
    <insertion-density value="12.0"/>
</configuration>
-->

<!-- generated on 2025-04-20 18:43:52 by Eclipse SUMO duarouter Version 1.22.0
<duarouterConfiguration xmlns:xsi="http://www.w3.org/2001/XMLSchema-instance" xsi:noNamespaceSchemaLocation="http://sumo.dlr.de/xsd/duarouterConfiguration.xsd">

    <input>
        <net-file value="C:\Users\elnaz\2025-04-20-18-40-09\osm.net.xml.gz"/>
        <route-files value="C:\Users\elnaz\2025-04-20-18-40-09\osm.passenger.trips.xml"/>
    </input>

    <output>
        <output-file value="C:\Users\elnaz\2025-04-20-18-40-09\osm.passenger.trips.xml.tmp"/>
        <alternatives-output value="NUL"/>
        <write-trips value="true"/>
    </output>

    <processing>
        <remove-loops value="true"/>
    </processing>

    <time>
        <begin value="0.0"/>
        <end value="3600.0"/>
    </time>

    <report>
        <no-warnings value="true"/>
        <ignore-errors value="true"/>
        <no-step-log value="true"/>
    </report>

</duarouterConfiguration>
-->

<routes xmlns:xsi="http://www.w3.org/2001/XMLSchema-instance" xsi:noNamespaceSchemaLocation="http://sumo.dlr.de/xsd/routes_file.xsd">
    <vType id="veh_passenger" vClass="passenger"/>

    <trip id="veh0" type="veh_passenger" depart="0" departLane="best" departSpeed="4" from="-35174151#1"  to="-41224286#1"/>
    <trip id="veh1" type="veh_passenger" depart="0" departLane="best" departSpeed="5" from="41224286#1"   to="35174151#1"/>
    <trip id="veh2" type="veh_passenger" depart="0.1" departLane="best" departSpeed="10" from="41224286#1"   to="35174151#1"/>
    <trip id="veh3" type="veh_passenger" depart="0.13" departLane="best" departSpeed="7" from="41224286#1"   to="35174151#1"/>
    <trip id="veh4" type="veh_passenger" depart="0.15" departLane="best" departSpeed="7" from="41224286#1"   to="35174151#1"/>
    <trip id="veh5" type="veh_passenger" depart="6.8" departLane="best" departSpeed="5" from="1058377480#0" to="35174151#1"/>
    <trip id="veh6" type="veh_passenger" depart="6.9" departLane="best" departSpeed="5" from="1058377480#0" to="35174151#1"/>
    <!--
    <trip id="veh0" type="veh_passenger" depart="0.00" departLane="best" from="-266867317#1" to="-147271095#4"/>
    <trip id="veh1" type="veh_passenger" depart="0.59" departLane="best" departSpeed="max" from="-38164290#6" to="38166489#0"/>
    <trip id="veh2" type="veh_passenger" depart="1.17" departLane="best" from="148332964" to="31056071#1"/>
    <trip id="veh3" type="veh_passenger" depart="1.76" departLane="best" from="503680670" to="-23512378"/>
    <trip id="veh4" type="veh_passenger" depart="2.34" departLane="best" from="-806422051#1" to="156927237#3"/>
    <trip id="veh5" type="veh_passenger" depart="2.93" departLane="best" from="-33881695#2" to="23637521#2"/>
    <trip id="veh6" type="veh_passenger" depart="3.52" departLane="best" departSpeed="max" from="-1324119134" to="-35448380#4"/>
    <trip id="veh7" type="veh_passenger" depart="4.10" departLane="best" from="27196938" to="27379759#12"/>
    <trip id="veh8" type="veh_passenger" depart="4.69" departLane="best" from="343436695#4" to="30016995"/>
    <trip id="veh9" type="veh_passenger" depart="5.27" departLane="best" from="37428905#4" to="-115969509#1"/>
    <trip id="veh10" type="veh_passenger" depart="5.86" departLane="best" from="37350422#6" to="35175746"/>
    <trip id="veh11" type="veh_passenger" depart="6.45" departLane="best" from="48554057#0" to="30324806#0"/>
    <trip id="veh12" type="veh_passenger" depart="7.03" departLane="best" from="695789865#2" to="1049341815#0"/>
    <trip id="veh13" type="veh_passenger" depart="7.62" departLane="best" from="23512358#1" to="-23623502"/>
    <trip id="veh14" type="veh_passenger" depart="8.20" departLane="best" departSpeed="max" from="42836311" to="30138528#1"/>
    <trip id="veh15" type="veh_passenger" depart="8.79" departLane="best" from="-37351337#7" to="36996470"/>
    <trip id="veh16" type="veh_passenger" depart="9.38" departLane="best" from="19106971#0" to="836175885#2"/>
    <trip id="veh17" type="veh_passenger" depart="9.96" departLane="best" departSpeed="max" from="-60775053" to="27380636#0"/>
    <trip id="veh18" type="veh_passenger" depart="10.55" departLane="best" from="39607110#1" to="30324668#3"/>
    <trip id="veh19" type="veh_passenger" depart="11.14" departLane="best" from="436942323#1" to="29999703#2"/>
    <trip id="veh20" type="veh_passenger" depart="11.72" departLane="best" from="30134250" to="-180809482"/>
    <trip id="veh21" type="veh_passenger" depart="12.31" departLane="best" departSpeed="max" from="-35175440#2" to="-60809224#0"/>
    <trip id="veh23" type="veh_passenger" depart="13.48" departLane="best" from="-23637475#1" to="-548841842"/>
    <trip id="veh24" type="veh_passenger" depart="14.07" departLane="best" from="26517289#4" to="1259745510"/>
    <trip id="veh26" type="veh_passenger" depart="15.24" departLane="best" departSpeed="max" from="-37683810#1" to="640103107"/>
    <trip id="veh27" type="veh_passenger" depart="15.82" departLane="best" from="27196930#0" to="-30275353#1"/>
    <trip id="veh28" type="veh_passenger" depart="16.41" departLane="best" departSpeed="max" from="-30324806#4" to="36996422#0"/>
    <trip id="veh29" type="veh_passenger" depart="17.00" departLane="best" from="-30275353#3" to="1347785259"/>
    <trip id="veh30" type="veh_passenger" depart="17.58" departLane="best" departSpeed="max" from="93361918" to="-30419873#4"/>
    <trip id="veh31" type="veh_passenger" depart="18.17" departLane="best" from="225613935#8" to="33233465#1"/>
    <trip id="veh32" type="veh_passenger" depart="18.75" departLane="best" from="22635994#1" to="41865753#1"/>
    <trip id="veh33" type="veh_passenger" depart="19.34" departLane="best" from="-35448114" to="-159545444#1"/>
    <trip id="veh34" type="veh_passenger" depart="19.93" departLane="best" departSpeed="max" from="-43178633" to="-51103574#1"/>
    <trip id="veh35" type="veh_passenger" depart="20.51" departLane="best" from="31114224#1" to="679650256#1"/>
    <trip id="veh36" type="veh_passenger" depart="21.10" departLane="best" from="48168213#1" to="-79851270#2"/>
    <trip id="veh37" type="veh_passenger" depart="21.68" departLane="best" from="48294232" to="156779718#1"/>
    <trip id="veh38" type="veh_passenger" depart="22.27" departLane="best" from="563803321#0" to="22495135"/>
    <trip id="veh39" type="veh_passenger" depart="22.86" departLane="best" departSpeed="max" from="-37683701" to="-43178775#0"/>
    <trip id="veh40" type="veh_passenger" depart="23.44" departLane="best" from="22635993#0" to="-48554057#11"/>
    <trip id="veh41" type="veh_passenger" depart="24.03" departLane="best" from="23153437#2" to="606779145#3"/>
    <trip id="veh43" type="veh_passenger" depart="25.20" departLane="best" from="-970917639" to="23637547#5"/>
    <trip id="veh44" type="veh_passenger" depart="25.79" departLane="best" from="23228935#1" to="-187065835#5"/>
    <trip id="veh45" type="veh_passenger" depart="26.37" departLane="best" from="244968970#2" to="30350116#2"/>
    <trip id="veh46" type="veh_passenger" depart="26.96" departLane="best" from="35883238#13" to="175459235"/>
    <trip id="veh47" type="veh_passenger" depart="27.55" departLane="best" from="-187066529#8" to="-137004150#0"/>
    <trip id="veh48" type="veh_passenger" depart="28.13" departLane="best" from="-96763841#1" to="268414379#3"/>
    <trip id="veh49" type="veh_passenger" depart="28.72" departLane="best" from="760927288#1" to="511308504#1"/>
    <trip id="veh50" type="veh_passenger" depart="29.30" departLane="best" from="117367494#0" to="36959069"/>
    <trip id="veh51" type="veh_passenger" depart="29.89" departLane="best" from="29986379#4" to="27198518#1"/>
    <trip id="veh52" type="veh_passenger" depart="30.48" departLane="best" departSpeed="max" from="-37683810#1" to="30477045"/>
    <trip id="veh53" type="veh_passenger" depart="31.06" departLane="best" from="-245591757#8" to="187065867#5"/>
    <trip id="veh54" type="veh_passenger" depart="31.65" departLane="best" from="1134462966" to="727140773#0"/>
    <trip id="veh55" type="veh_passenger" depart="32.23" departLane="best" from="48134916#1" to="-48554057#4"/>
    <trip id="veh56" type="veh_passenger" depart="32.82" departLane="best" from="159545439" to="-30645421#0"/>
    <trip id="veh57" type="veh_passenger" depart="33.41" departLane="best" from="55378013" to="54773967"/>
    <trip id="veh58" type="veh_passenger" depart="33.99" departLane="best" departSpeed="max" from="-42894584" to="30419844"/>
    <trip id="veh59" type="veh_passenger" depart="34.58" departLane="best" departSpeed="max" from="23623500" to="-30318632#2"/>
    <trip id="veh60" type="veh_passenger" depart="35.16" departLane="best" departSpeed="max" from="30889232" to="27198540#1"/>
    <trip id="veh61" type="veh_passenger" depart="35.75" departLane="best" from="-34626976#1" to="270841355#4"/>
    <trip id="veh62" type="veh_passenger" depart="36.34" departLane="best" departSpeed="max" from="-1021526171" to="-889353705#0"/>
    <trip id="veh63" type="veh_passenger" depart="36.92" departLane="best" from="-1226232192#0" to="61491585#6-AddedOnRampEdge"/>
    <trip id="veh64" type="veh_passenger" depart="37.51" departLane="best" from="48169637#0" to="48056264#3"/>
    <trip id="veh65" type="veh_passenger" depart="38.09" departLane="best" departSpeed="max" from="-42894893#1" to="22019041#1"/>
    <trip id="veh66" type="veh_passenger" depart="38.68" departLane="best" from="48169635#0" to="694029215#0"/>
    <trip id="veh67" type="veh_passenger" depart="39.27" departLane="best" from="22919245#4" to="23228887"/>
    <trip id="veh68" type="veh_passenger" depart="39.85" departLane="best" from="-20094075#2" to="38348891#1"/>
    <trip id="veh69" type="veh_passenger" depart="40.44" departLane="best" from="31055695#0" to="-27379759#0"/>
    <trip id="veh70" type="veh_passenger" depart="41.02" departLane="best" from="132327554#0" to="27380616#1"/>
    <trip id="veh71" type="veh_passenger" depart="41.61" departLane="best" departSpeed="max" from="-37683720" to="54773975"/>
    <trip id="veh72" type="veh_passenger" depart="42.20" departLane="best" from="-82325384#13" to="370396619#2"/>
    <trip id="veh73" type="veh_passenger" depart="42.78" departLane="best" from="199312166#1" to="36996640"/>
    <trip id="veh74" type="veh_passenger" depart="43.37" departLane="best" from="-30645179#1" to="755171628#1"/>
    <trip id="veh75" type="veh_passenger" depart="43.95" departLane="best" from="966711634#0" to="30508973#3"/>
    <trip id="veh76" type="veh_passenger" depart="44.54" departLane="best" from="-96107124#0" to="245591757#9"/>
    <trip id="veh77" type="veh_passenger" depart="45.13" departLane="best" departSpeed="max" from="-27196933#1" to="-386522784"/>
    <trip id="veh78" type="veh_passenger" depart="45.71" departLane="best" from="-48549895#4" to="30016949#1"/>
    <trip id="veh79" type="veh_passenger" depart="46.30" departLane="best" departSpeed="max" from="-35448574" to="-378121833"/>
    <trip id="veh80" type="veh_passenger" depart="46.89" departLane="best" from="-204441445#1" to="30351435#3"/>
    <trip id="veh82" type="veh_passenger" depart="48.06" departLane="best" departSpeed="max" from="43178775#0" to="-22730814#10"/>
    <trip id="veh83" type="veh_passenger" depart="48.64" departLane="best" departSpeed="max" from="-35480653" to="30645911#2"/>
    <trip id="veh84" type="veh_passenger" depart="49.23" departLane="best" departSpeed="max" from="-31159336#1" to="-27380619#0"/>
    <trip id="veh85" type="veh_passenger" depart="49.82" departLane="best" from="-612391221" to="29992367#5"/>
    <trip id="veh86" type="veh_passenger" depart="50.40" departLane="best" from="1298820022#1" to="42836173#9"/>
    <trip id="veh87" type="veh_passenger" depart="50.99" departLane="best" from="-37351579#0" to="33720628#1"/>
    <trip id="veh88" type="veh_passenger" depart="51.57" departLane="best" from="23543746#1" to="18117804#2"/>
    <trip id="veh89" type="veh_passenger" depart="52.16" departLane="best" from="-82325384#8" to="22635993#0"/>
    <trip id="veh90" type="veh_passenger" depart="52.75" departLane="best" from="30407293#2" to="30888509-AddedOffRampEdge"/>
    <trip id="veh92" type="veh_passenger" depart="53.92" departLane="best" from="-630701945" to="106223645#3"/>
    <trip id="veh93" type="veh_passenger" depart="54.50" departLane="best" from="436942323#1" to="-44154504#0"/>
    <trip id="veh94" type="veh_passenger" depart="55.09" departLane="best" from="-30508283#1" to="204441438#1"/>
    <trip id="veh95" type="veh_passenger" depart="55.68" departLane="best" from="-806422051#1" to="553705423"/>
    <trip id="veh96" type="veh_passenger" depart="56.26" departLane="best" departSpeed="max" from="-36959084" to="61491572"/>
    <trip id="veh97" type="veh_passenger" depart="56.85" departLane="best" from="1021526170" to="-51573963#0"/>
    <trip id="veh98" type="veh_passenger" depart="57.43" departLane="best" departSpeed="max" from="222114282#0" to="-190479263"/>
    <trip id="veh99" type="veh_passenger" depart="58.02" departLane="best" from="98202104" to="48125533#3"/>
    <trip id="veh100" type="veh_passenger" depart="58.61" departLane="best" from="-757999293#1" to="61491585#0"/>
    <trip id="veh101" type="veh_passenger" depart="59.19" departLane="best" from="42836323#1" to="-30478657"/>
    <trip id="veh102" type="veh_passenger" depart="59.78" departLane="best" from="-141512219#0" to="37351337#5"/>
    <trip id="veh103" type="veh_passenger" depart="60.36" departLane="best" departSpeed="max" from="-616749929" to="-22019041#7"/>
    <trip id="veh104" type="veh_passenger" depart="60.95" departLane="best" departSpeed="max" from="-60809218#1" to="894302894#1"/>
    <trip id="veh105" type="veh_passenger" depart="61.54" departLane="best" departSpeed="max" from="-37683720" to="42836173#3"/>
    <trip id="veh106" type="veh_passenger" depart="62.12" departLane="best" from="114712416#3" to="17548900#1"/>
    <trip id="veh107" type="veh_passenger" depart="62.71" departLane="best" from="69606489" to="96763841#3"/>
    <trip id="veh108" type="veh_passenger" depart="63.29" departLane="best" from="225613935#1" to="363479333#0"/>
    <trip id="veh109" type="veh_passenger" depart="63.88" departLane="best" departSpeed="max" from="-30033769" to="-61491573#0"/>
    <trip id="veh110" type="veh_passenger" depart="64.47" departLane="best" from="757670201#4" to="29999957#0"/>
    <trip id="veh111" type="veh_passenger" depart="65.05" departLane="best" from="203142287#1" to="37683936#1"/>
    <trip id="veh112" type="veh_passenger" depart="65.64" departLane="best" from="-17548930#2" to="30009268#4"/>
    <trip id="veh113" type="veh_passenger" depart="66.23" departLane="best" from="159923009#1" to="49900050"/>
    <trip id="veh114" type="veh_passenger" depart="66.81" departLane="best" departSpeed="max" from="-30130181#2" to="754328369#0"/>
    <trip id="veh116" type="veh_passenger" depart="67.98" departLane="best" departSpeed="max" from="23512379" to="30985075#1"/>
    <trip id="veh117" type="veh_passenger" depart="68.57" departLane="best" departSpeed="max" from="-35480326" to="-27122018#2"/>
    <trip id="veh118" type="veh_passenger" depart="69.16" departLane="best" from="-488693298#1" to="-43178774#0"/>
    <trip id="veh119" type="veh_passenger" depart="69.74" departLane="best" from="23512377#3" to="30324712#1"/>
    <trip id="veh120" type="veh_passenger" depart="70.33" departLane="best" from="759984928#0" to="30009256#1"/>
    <trip id="veh121" type="veh_passenger" depart="70.91" departLane="best" from="178117979" to="617217135#1"/>
    <trip id="veh122" type="veh_passenger" depart="71.50" departLane="best" from="-30645817#2" to="-35883238#29"/>
    <trip id="veh123" type="veh_passenger" depart="72.09" departLane="best" departSpeed="max" from="-35480755" to="156779720"/>
    <trip id="veh124" type="veh_passenger" depart="72.67" departLane="best" departSpeed="max" from="28444503" to="616749939#1"/>
    <trip id="veh125" type="veh_passenger" depart="73.26" departLane="best" departSpeed="max" from="-43178639" to="37720100#0"/>
    <trip id="veh126" type="veh_passenger" depart="73.84" departLane="best" from="-216091474" to="22382654#6"/>
    <trip id="veh127" type="veh_passenger" depart="74.43" departLane="best" from="656043103" to="96763876"/>
    <trip id="veh128" type="veh_passenger" depart="75.02" departLane="best" from="-22019041#4" to="37350418"/>
    <trip id="veh129" type="veh_passenger" depart="75.60" departLane="best" departSpeed="max" from="-37683720" to="616749929"/>
    <trip id="veh130" type="veh_passenger" depart="76.19" departLane="best" from="48170737" to="562324251#2"/>
    <trip id="veh132" type="veh_passenger" depart="77.36" departLane="best" from="30646428#3" to="35448709#1"/>
    <trip id="veh133" type="veh_passenger" depart="77.95" departLane="best" from="-23623515#3" to="895832092#1"/>
    <trip id="veh134" type="veh_passenger" depart="78.53" departLane="best" from="27198543#0" to="116614555#1"/>
    <trip id="veh135" type="veh_passenger" depart="79.12" departLane="best" from="378121836" to="-616749930#0"/>
    <trip id="veh136" type="veh_passenger" depart="79.70" departLane="best" departSpeed="max" from="27380619#0" to="663668057#0"/>
    <trip id="veh137" type="veh_passenger" depart="80.29" departLane="best" from="27380641#1" to="-26517291#0"/>
    <trip id="veh138" type="veh_passenger" depart="80.88" departLane="best" from="-238475476#0" to="27380646#5"/>
    <trip id="veh139" type="veh_passenger" depart="81.46" departLane="best" departSpeed="max" from="-37916273#1" to="30187898#2"/>
    <trip id="veh140" type="veh_passenger" depart="82.05" departLane="best" from="-30324668#3" to="-35883238#12"/>
    <trip id="veh142" type="veh_passenger" depart="83.22" departLane="best" from="-147271085#22" to="-60809233#1"/>
    <trip id="veh143" type="veh_passenger" depart="83.81" departLane="best" from="42836173#9" to="-23623473"/>
    <trip id="veh144" type="veh_passenger" depart="84.39" departLane="best" from="-82325384#8" to="-54773980"/>
    <trip id="veh145" type="veh_passenger" depart="84.98" departLane="best" from="-104330776#2" to="41126931"/>
    <trip id="veh146" type="veh_passenger" depart="85.57" departLane="best" from="26517291#1" to="-48554055#0"/>
    <trip id="veh147" type="veh_passenger" depart="86.15" departLane="best" from="30508532#0" to="27380632#5"/>
    <trip id="veh148" type="veh_passenger" depart="86.74" departLane="best" from="-837050793#1" to="-1191548983#1"/>
    <trip id="veh149" type="veh_passenger" depart="87.32" departLane="best" from="22295853#3" to="58442639#1"/>
    <trip id="veh150" type="veh_passenger" depart="87.91" departLane="best" from="540166132" to="27379759#8"/>
    <trip id="veh151" type="veh_passenger" depart="88.50" departLane="best" from="41128137#1" to="30001041"/>
    <trip id="veh152" type="veh_passenger" depart="89.08" departLane="best" departSpeed="max" from="-30000055" to="-27212508#9"/>
    <trip id="veh153" type="veh_passenger" depart="89.67" departLane="best" from="-42894910#0" to="607167444#0"/>
    <trip id="veh154" type="veh_passenger" depart="90.25" departLane="best" from="363442073" to="511308504#1"/>
    <trip id="veh155" type="veh_passenger" depart="90.84" departLane="best" from="1307280108" to="-36959091"/>
    <trip id="veh156" type="veh_passenger" depart="91.43" departLane="best" departSpeed="max" from="-36959084" to="-23637524"/>
    <trip id="veh157" type="veh_passenger" depart="92.01" departLane="best" from="-35174474#0" to="58442698"/>
    <trip id="veh158" type="veh_passenger" depart="92.60" departLane="best" departSpeed="max" from="-682624377#1" to="30324904#0"/>
    <trip id="veh159" type="veh_passenger" depart="93.18" departLane="best" departSpeed="max" from="-30033755#1" to="61491585#9"/>
    <trip id="veh160" type="veh_passenger" depart="93.77" departLane="best" from="30496674" to="837064650#3"/>
    <trip id="veh161" type="veh_passenger" depart="94.36" departLane="best" from="-1315669120" to="-37351337#7"/>
    <trip id="veh162" type="veh_passenger" depart="94.94" departLane="best" from="-48134415#0" to="61491593"/>
    <trip id="veh163" type="veh_passenger" depart="95.53" departLane="best" departSpeed="max" from="36996914#0" to="53665751#2"/>
    <trip id="veh164" type="veh_passenger" depart="96.11" departLane="best" from="375044718" to="504785580#2"/>
    <trip id="veh165" type="veh_passenger" depart="96.70" departLane="best" from="35448689#6" to="238475476#0"/>
    <trip id="veh166" type="veh_passenger" depart="97.29" departLane="best" from="48076075#0" to="505221865#1"/>
    <trip id="veh167" type="veh_passenger" depart="97.87" departLane="best" from="-34626976#1" to="43178775#1"/>
    <trip id="veh168" type="veh_passenger" depart="98.46" departLane="best" from="1180567826" to="-694140741"/>
    <trip id="veh170" type="veh_passenger" depart="99.63" departLane="best" departSpeed="max" from="-1275290513" to="34626975#21"/>
    <trip id="veh171" type="veh_passenger" depart="100.22" departLane="best" from="47638782#5" to="53665752#0"/>
    <trip id="veh172" type="veh_passenger" depart="100.80" departLane="best" from="-754384130#0" to="-558791290"/>
    <trip id="veh173" type="veh_passenger" depart="101.39" departLane="best" from="26832371#1" to="158584856"/>
    <trip id="veh174" type="veh_passenger" depart="101.98" departLane="best" from="838265161#2" to="27196943"/>
    <trip id="veh175" type="veh_passenger" depart="102.56" departLane="best" from="61483770" to="26517290#3"/>
    <trip id="veh176" type="veh_passenger" depart="103.15" departLane="best" from="760000257#3" to="-30645421#0"/>
    <trip id="veh177" type="veh_passenger" depart="103.73" departLane="best" from="741019328" to="-49900055#4"/>
    <trip id="veh178" type="veh_passenger" depart="104.32" departLane="best" from="-240246586" to="187065867#3"/>
    <trip id="veh179" type="veh_passenger" depart="104.91" departLane="best" from="-30406918#3" to="764613617#0"/>
    <trip id="veh180" type="veh_passenger" depart="105.49" departLane="best" departSpeed="max" from="23623487" to="236417564#1"/>
    <trip id="veh181" type="veh_passenger" depart="106.08" departLane="best" departSpeed="max" from="-60913710" to="-29995098"/>
    <trip id="veh182" type="veh_passenger" depart="106.66" departLane="best" departSpeed="max" from="-36996470" to="35480488#2"/>
    <trip id="veh183" type="veh_passenger" depart="107.25" departLane="best" departSpeed="max" from="-1021526179#3" to="61491582"/>
    <trip id="veh184" type="veh_passenger" depart="107.84" departLane="best" from="19829952#2" to="-36945844#9"/>
    <trip id="veh185" type="veh_passenger" depart="108.42" departLane="best" from="-30508973#1" to="30646163#3"/>
    <trip id="veh186" type="veh_passenger" depart="109.01" departLane="best" departSpeed="max" from="-58864987" to="-22718825"/>
    <trip id="veh187" type="veh_passenger" depart="109.59" departLane="best" from="27380628#8" to="114712416#3"/>
    <trip id="veh188" type="veh_passenger" depart="110.18" departLane="best" from="-42956754" to="48554039"/>
    <trip id="veh189" type="veh_passenger" depart="110.77" departLane="best" from="30325109#2" to="616749941#1"/>
    <trip id="veh190" type="veh_passenger" depart="111.35" departLane="best" departSpeed="max" from="-42894938" to="160244701"/>
    <trip id="veh192" type="veh_passenger" depart="112.52" departLane="best" from="27219062#1" to="17480830#6"/>
    <trip id="veh194" type="veh_passenger" depart="113.70" departLane="best" departSpeed="max" from="53665753#0" to="30324247"/>
    <trip id="veh195" type="veh_passenger" depart="114.28" departLane="best" departSpeed="max" from="-42894625#3" to="27379775#2"/>
    <trip id="veh196" type="veh_passenger" depart="114.87" departLane="best" departSpeed="max" from="-1016232851#1" to="60447733#0"/>
    <trip id="veh197" type="veh_passenger" depart="115.45" departLane="best" departSpeed="max" from="-838265158" to="30000055"/>
    <trip id="veh199" type="veh_passenger" depart="116.63" departLane="best" from="-97839982#1" to="37351337#5"/>
    <trip id="veh200" type="veh_passenger" depart="117.21" departLane="best" from="1307280108" to="60775015#1"/>
    <trip id="veh201" type="veh_passenger" depart="117.80" departLane="best" from="363442073" to="30508236#0"/>
    <trip id="veh202" type="veh_passenger" depart="118.39" departLane="best" from="-22885804#1" to="244452888#5"/>
    <trip id="veh203" type="veh_passenger" depart="118.97" departLane="best" from="257216399#3" to="104330776#0"/>
    <trip id="veh204" type="veh_passenger" depart="119.56" departLane="best" departSpeed="max" from="-37916273#0" to="37719913"/>
    <trip id="veh205" type="veh_passenger" depart="120.14" departLane="best" from="289914906" to="-386522783"/>
    <trip id="veh206" type="veh_passenger" depart="120.73" departLane="best" departSpeed="max" from="-30644795#1" to="147271085#7"/>
    <trip id="veh207" type="veh_passenger" depart="121.32" departLane="best" from="360051556#3" to="22870867#1"/>
    <trip id="veh208" type="veh_passenger" depart="121.90" departLane="best" from="42894682" to="22885812#0"/>
    <trip id="veh209" type="veh_passenger" depart="122.49" departLane="best" departSpeed="max" from="-731901821#1" to="30351203#5"/>
    <trip id="veh210" type="veh_passenger" depart="123.07" departLane="best" from="-30510137#1" to="-35174850#10"/>
    <trip id="veh211" type="veh_passenger" depart="123.66" departLane="best" from="156779703#1" to="-42956767#3"/>
    <trip id="veh212" type="veh_passenger" depart="124.25" departLane="best" from="27203306#4" to="1135201536"/>
    <trip id="veh213" type="veh_passenger" depart="124.83" departLane="best" from="-30644738#1" to="40582821"/>
    <trip id="veh214" type="veh_passenger" depart="125.42" departLane="best" departSpeed="max" from="-238373324#1" to="176210591#0"/>
    <trip id="veh215" type="veh_passenger" depart="126.00" departLane="best" from="-30341166#2" to="749226454#0-AddedOnRampEdge"/>
    <trip id="veh216" type="veh_passenger" depart="126.59" departLane="best" from="-17480830#9" to="18814185#2"/>
    <trip id="veh217" type="veh_passenger" depart="127.18" departLane="best" departSpeed="max" from="-36959083" to="48554044"/>
    <trip id="veh218" type="veh_passenger" depart="127.76" departLane="best" from="-115969509#2" to="42894938"/>
    <trip id="veh219" type="veh_passenger" depart="128.35" departLane="best" from="27380646#6" to="913247577"/>
    <trip id="veh220" type="veh_passenger" depart="128.93" departLane="best" from="23512383#0" to="-704132893#1"/>
    <trip id="veh221" type="veh_passenger" depart="129.52" departLane="best" from="49900055#8" to="30317973#1"/>
    <trip id="veh222" type="veh_passenger" depart="130.11" departLane="best" from="378105445" to="23637517#1"/>
    <trip id="veh223" type="veh_passenger" depart="130.69" departLane="best" departSpeed="max" from="39607252#0" to="27379775#1"/>
    <trip id="veh224" type="veh_passenger" depart="131.28" departLane="best" from="51103600#1" to="37683148"/>
    <trip id="veh226" type="veh_passenger" depart="132.45" departLane="best" departSpeed="max" from="-36959074#1" to="30419730#1"/>
    <trip id="veh227" type="veh_passenger" depart="133.04" departLane="best" from="187065843#1" to="26517289#12"/>
    <trip id="veh228" type="veh_passenger" depart="133.62" departLane="best" from="23981008#0" to="-54318122#0"/>
    <trip id="veh229" type="veh_passenger" depart="134.21" departLane="best" departSpeed="max" from="-225199719" to="-59148057#1"/>
    <trip id="veh230" type="veh_passenger" depart="134.79" departLane="best" from="-37916270#0" to="-836932588#1"/>
    <trip id="veh231" type="veh_passenger" depart="135.38" departLane="best" from="19985014#4" to="27789942#1"/>
    <trip id="veh232" type="veh_passenger" depart="135.97" departLane="best" departSpeed="max" from="-35448658" to="35174474#1"/>
    <trip id="veh234" type="veh_passenger" depart="137.14" departLane="best" departSpeed="max" from="-688638794#1" to="27203708#2"/>
    <trip id="veh235" type="veh_passenger" depart="137.73" departLane="best" from="749226456" to="-35883238#9"/>
    <trip id="veh236" type="veh_passenger" depart="138.31" departLane="best" from="-764613617#0" to="60809228#1"/>
    <trip id="veh237" type="veh_passenger" depart="138.90" departLane="best" departSpeed="max" from="23153418" to="-35174738#12"/>
    <trip id="veh238" type="veh_passenger" depart="139.48" departLane="best" from="43178653#0" to="39607084#0"/>
    <trip id="veh239" type="veh_passenger" depart="140.07" departLane="best" departSpeed="max" from="-60809228#1" to="114712416#1"/>
    <trip id="veh241" type="veh_passenger" depart="141.24" departLane="best" from="42956749" to="-723280546#1"/>
    <trip id="veh242" type="veh_passenger" depart="141.83" departLane="best" from="759817490" to="37683823#1"/>
    <trip id="veh243" type="veh_passenger" depart="142.41" departLane="best" from="-209096052#2" to="30138469"/>